
  662               3D

  5  4  0  0  1  0  0  0  0  0999 V2000
    0.0642   -0.0560   -0.0891 C   0  0  1  0  0  0  0  0  0  0  0  0
    0.6098   -1.3348    1.0034 Cl  0  0  0  0  0  0  0  0  0  0  0  0
    0.3878   -0.3879   -1.3663 F   0  0  0  0  0  0  0  0  0  0  0  0
    0.9364    1.6150    0.3828 Br  0  0  0  0  0  0  0  0  0  0  0  0
   -1.9982    0.1638    0.0691 I   0  0  0  0  0  0  0  0  0  0  0  0
  1  2  1  0  0  0  0
  1  3  1  0  0  0  0
  1  4  1  0  0  0  0
  1  5  1  0  0  0  0
M  END
>  <energy>
0.026433344815301102

$$$$
