
  662               3D

  5  4  0  0  1  0  0  0  0  0999 V2000
    0.0611   -0.0170   -0.1056 C   0  0  1  0  0  0  0  0  0  0  0  0
    0.2790   -0.5246   -1.3470 F   0  0  0  0  0  0  0  0  0  0  0  0
    0.9239    1.5177    0.0581 Cl  0  0  0  0  0  0  0  0  0  0  0  0
    0.7131   -1.2720    1.2268 Br  0  0  0  0  0  0  0  0  0  0  0  0
   -1.9771    0.2959    0.1677 I   0  0  0  0  0  0  0  0  0  0  0  0
  1  2  1  0  0  0  0
  1  3  1  0  0  0  0
  1  4  1  0  0  0  0
  1  5  1  0  0  0  0
M  END
>  <energy>
0.02643432090518856

$$$$
