
  662               3D

 19 18  0  0  1  0  0  0  0  0999 V2000
   23.5758  -17.2765   -0.2371 C   0  0  1  0  0  0  0  0  0  0  0  0
   24.9419  -16.6174    0.0213 C   0  0  0  0  0  0  0  0  0  0  0  0
   22.5711  -16.8470    0.8192 C   0  0  0  0  0  0  0  0  0  0  0  0
   23.0108  -16.9463   -1.5439 N   0  0  0  0  0  0  0  0  0  0  0  0
   25.9049  -16.6156   -1.1678 C   0  0  0  0  0  0  0  0  0  0  0  0
   21.4105  -17.5431    0.7024 O   0  0  0  0  0  0  0  0  0  0  0  0
   22.7651  -16.0135    1.6935 O   0  0  0  0  0  0  0  0  0  0  0  0
   26.7560  -17.8415   -1.3818 C   0  0  0  0  0  0  0  0  0  0  0  0
   26.7548  -18.7003   -0.3401 O   0  0  0  0  0  0  0  0  0  0  0  0
   27.4260  -18.0174   -2.3926 O   0  0  0  0  0  0  0  0  0  0  0  0
   23.6904  -18.3638   -0.1617 H   0  0  0  0  0  0  0  0  0  0  0  0
   24.8059  -15.5711    0.3275 H   0  0  0  0  0  0  0  0  0  0  0  0
   25.4036  -17.1075    0.8889 H   0  0  0  0  0  0  0  0  0  0  0  0
   22.5666  -16.0302   -1.5366 H   0  0  0  0  0  0  0  0  0  0  0  0
   22.2896  -17.6233   -1.7904 H   0  0  0  0  0  0  0  0  0  0  0  0
   25.3686  -16.4371   -2.1055 H   0  0  0  0  0  0  0  0  0  0  0  0
   26.5948  -15.7708   -1.0557 H   0  0  0  0  0  0  0  0  0  0  0  0
   20.9329  -17.3246   -0.1266 H   0  0  0  0  0  0  0  0  0  0  0  0
   27.5580  -19.2641   -0.3396 H   0  0  0  0  0  0  0  0  0  0  0  0
  1  2  1  0  0  0  0
  1  3  1  0  0  0  0
  1  4  1  0  0  0  0
  2  5  1  0  0  0  0
  3  6  1  0  0  0  0
  3  7  2  0  0  0  0
  5  8  1  0  0  0  0
  8  9  1  0  0  0  0
  8 10  2  0  0  0  0
  1 11  1  0  0  0  0
  2 12  1  0  0  0  0
  2 13  1  0  0  0  0
  4 14  1  0  0  0  0
  4 15  1  0  0  0  0
  5 16  1  0  0  0  0
  5 17  1  0  0  0  0
  6 18  1  0  0  0  0
  9 19  1  0  0  0  0
M  END
>  <energy>
22.126900181279609

$$$$

  662               3D

 19 18  0  0  1  0  0  0  0  0999 V2000
   23.4976  -17.6830   -0.0158 C   0  0  1  0  0  0  0  0  0  0  0  0
   24.9443  -17.7131    0.5014 C   0  0  0  0  0  0  0  0  0  0  0  0
   22.6308  -16.7001    0.7474 C   0  0  0  0  0  0  0  0  0  0  0  0
   23.4313  -17.3177   -1.4290 N   0  0  0  0  0  0  0  0  0  0  0  0
   25.9067  -18.4307   -0.4507 C   0  0  0  0  0  0  0  0  0  0  0  0
   21.3375  -16.7784    0.3355 O   0  0  0  0  0  0  0  0  0  0  0  0
   23.0075  -15.9443    1.6310 O   0  0  0  0  0  0  0  0  0  0  0  0
   26.6318  -17.5694   -1.4627 C   0  0  0  0  0  0  0  0  0  0  0  0
   26.2558  -16.2707   -1.4488 O   0  0  0  0  0  0  0  0  0  0  0  0
   27.4737  -18.0114   -2.2353 O   0  0  0  0  0  0  0  0  0  0  0  0
   23.0584  -18.6797    0.1231 H   0  0  0  0  0  0  0  0  0  0  0  0
   25.3154  -16.7124    0.7584 H   0  0  0  0  0  0  0  0  0  0  0  0
   24.9416  -18.2703    1.4486 H   0  0  0  0  0  0  0  0  0  0  0  0
   23.4877  -16.3071   -1.5447 H   0  0  0  0  0  0  0  0  0  0  0  0
   22.5436  -17.6175   -1.8303 H   0  0  0  0  0  0  0  0  0  0  0  0
   26.6750  -18.9401    0.1409 H   0  0  0  0  0  0  0  0  0  0  0  0
   25.3769  -19.2128   -1.0091 H   0  0  0  0  0  0  0  0  0  0  0  0
   21.2394  -16.5191   -0.6065 H   0  0  0  0  0  0  0  0  0  0  0  0
   26.2893  -15.8662   -2.3425 H   0  0  0  0  0  0  0  0  0  0  0  0
  1  2  1  0  0  0  0
  1  3  1  0  0  0  0
  1  4  1  0  0  0  0
  2  5  1  0  0  0  0
  3  6  1  0  0  0  0
  3  7  2  0  0  0  0
  5  8  1  0  0  0  0
  8  9  1  0  0  0  0
  8 10  2  0  0  0  0
  1 11  1  0  0  0  0
  2 12  1  0  0  0  0
  2 13  1  0  0  0  0
  4 14  1  0  0  0  0
  4 15  1  0  0  0  0
  5 16  1  0  0  0  0
  5 17  1  0  0  0  0
  6 18  1  0  0  0  0
  9 19  1  0  0  0  0
M  END
>  <energy>
22.919884191524222

$$$$
