
  662               3D

 42 44  0  0  1  0  0  0  0  0999 V2000
   29.0354  -16.0702   -0.4836 N   0  0  0  0  0  0  0  0  0  0  0  0
   30.3867  -15.7155   -0.2999 C   0  0  0  0  0  0  0  0  0  0  0  0
   27.8514  -15.2163   -0.4580 C   0  0  2  0  0  0  0  0  0  0  0  0
   29.0852  -17.4378   -0.7040 C   0  0  0  0  0  0  0  0  0  0  0  0
   31.0588  -16.8807   -0.4178 C   0  0  0  0  0  0  0  0  0  0  0  0
   31.0184  -14.5298   -0.0277 N   0  0  0  0  0  0  0  0  0  0  0  0
   27.2653  -15.0712    0.7999 O   0  0  0  0  0  0  0  0  0  0  0  0
   26.6369  -15.6154   -1.2172 C   0  0  1  0  0  0  0  0  0  0  0  0
   30.2713  -17.9833   -0.6730 N   0  0  0  0  0  0  0  0  0  0  0  0
   32.4891  -16.8996   -0.0390 C   0  0  0  0  0  0  0  0  0  0  0  0
   32.2901  -14.6181    0.2323 C   0  0  0  0  0  0  0  0  0  0  0  0
   26.1622  -14.2470    0.6209 C   0  0  1  0  0  0  0  0  0  0  0  0
   25.5652  -14.7992   -0.6122 C   0  0  1  0  0  0  0  0  0  0  0  0
   26.7601  -15.4940   -2.5688 O   0  0  0  0  0  0  0  0  0  0  0  0
   33.0674  -15.7589    0.2419 N   0  0  0  0  0  0  0  0  0  0  0  0
   33.1940  -18.0854    0.0550 N   0  0  0  0  0  0  0  0  0  0  0  0
   25.1473  -14.1269    1.8602 C   0  0  0  0  0  0  0  0  0  0  0  0
   24.9893  -13.8621   -1.4164 O   0  0  0  0  0  0  0  0  0  0  0  0
   23.9670  -13.5387    1.3384 O   0  0  0  0  0  0  0  0  0  0  0  0
   22.5814  -13.3601    2.1088 P   0  0  2  0  0  0  0  0  0  0  0  0
   21.9264  -14.7466    2.5672 O   0  0  0  0  0  0  0  0  0  0  0  0
   22.7836  -12.4385    3.4026 O   0  0  0  0  0  0  0  0  0  0  0  0
   21.7210  -12.7023    1.2652 O   0  0  0  0  0  0  0  0  0  0  0  0
   21.1188  -16.0244    1.8955 P   0  0  0  0  0  0  0  0  0  0  0  0
   21.5833  -16.6695    3.3195 O   0  0  0  0  0  0  0  0  0  0  0  0
   19.6463  -16.4030    2.5830 O   0  0  0  0  0  0  0  0  0  0  0  0
   20.3148  -15.0116    1.4002 O   0  0  0  0  0  0  0  0  0  0  0  0
   28.2345  -14.2361   -0.8398 H   0  0  0  0  0  0  0  0  0  0  0  0
   28.1422  -17.9787   -0.8655 H   0  0  0  0  0  0  0  0  0  0  0  0
   26.4024  -16.6959   -1.0308 H   0  0  0  0  0  0  0  0  0  0  0  0
   32.8243  -13.6911    0.4946 H   0  0  0  0  0  0  0  0  0  0  0  0
   26.4831  -13.1822    0.5000 H   0  0  0  0  0  0  0  0  0  0  0  0
   24.7161  -15.4895   -0.3247 H   0  0  0  0  0  0  0  0  0  0  0  0
   26.9088  -14.5565   -2.7799 H   0  0  0  0  0  0  0  0  0  0  0  0
   32.9411  -18.8139   -0.6089 H   0  0  0  0  0  0  0  0  0  0  0  0
   33.2437  -18.4796    0.9950 H   0  0  0  0  0  0  0  0  0  0  0  0
   25.6155  -13.4788    2.6114 H   0  0  0  0  0  0  0  0  0  0  0  0
   24.9540  -15.1308    2.2513 H   0  0  0  0  0  0  0  0  0  0  0  0
   25.6907  -13.3770   -1.8779 H   0  0  0  0  0  0  0  0  0  0  0  0
   22.9257  -12.8892    4.2576 H   0  0  0  0  0  0  0  0  0  0  0  0
   21.1380  -16.3177    4.1258 H   0  0  0  0  0  0  0  0  0  0  0  0
   19.0015  -15.6797    2.7426 H   0  0  0  0  0  0  0  0  0  0  0  0
  1  2  1  0  0  0  0
  3  1  1  0  0  0  0
  1  4  1  0  0  0  0
  2  5  2  0  0  0  0
  2  6  1  0  0  0  0
  3  7  1  0  0  0  0
  3  8  1  0  0  0  0
  4  9  2  0  0  0  0
  5 10  1  0  0  0  0
  6 11  2  0  0  0  0
  7 12  1  0  0  0  0
  8 13  1  0  0  0  0
  8 14  1  0  0  0  0
 10 15  2  0  0  0  0
 10 16  1  0  0  0  0
 12 17  1  0  0  0  0
 13 18  1  0  0  0  0
 17 19  1  0  0  0  0
 19 20  1  0  0  0  0
 20 21  1  0  0  0  0
 20 22  1  0  0  0  0
 20 23  2  0  0  0  0
 21 24  1  0  0  0  0
 24 25  1  0  0  0  0
 24 26  1  0  0  0  0
 24 27  2  0  0  0  0
  5  9  1  0  0  0  0
 11 15  1  0  0  0  0
 12 13  1  0  0  0  0
  3 28  1  0  0  0  0
  4 29  1  0  0  0  0
  8 30  1  0  0  0  0
 11 31  1  0  0  0  0
 12 32  1  0  0  0  0
 13 33  1  0  0  0  0
 14 34  1  0  0  0  0
 16 35  1  0  0  0  0
 16 36  1  0  0  0  0
 17 37  1  0  0  0  0
 17 38  1  0  0  0  0
 18 39  1  0  0  0  0
 22 40  1  0  0  0  0
 25 41  1  0  0  0  0
 26 42  1  0  0  0  0
M  END
>  <energy>
367.34649105438439

$$$$
