
  662               3D

 47 49  0  0  1  0  0  0  0  0999 V2000
   29.5320  -14.4300   -0.2523 N   0  0  0  0  0  0  0  0  0  0  0  0
   30.6047  -15.3310   -0.1425 C   0  0  0  0  0  0  0  0  0  0  0  0
   28.1121  -14.6893   -0.3693 C   0  0  2  0  0  0  0  0  0  0  0  0
   30.1449  -13.1889   -0.2881 C   0  0  0  0  0  0  0  0  0  0  0  0
   31.7035  -14.5446   -0.1001 C   0  0  0  0  0  0  0  0  0  0  0  0
   30.6871  -16.7036   -0.0888 N   0  0  0  0  0  0  0  0  0  0  0  0
   27.5142  -15.2741    0.7540 O   0  0  0  0  0  0  0  0  0  0  0  0
   27.5377  -15.5349   -1.4602 C   0  0  1  0  0  0  0  0  0  0  0  0
   31.4559  -13.1921   -0.1867 N   0  0  0  0  0  0  0  0  0  0  0  0
   33.0188  -15.1886    0.0873 C   0  0  0  0  0  0  0  0  0  0  0  0
   31.8823  -17.1938   -0.0279 C   0  0  0  0  0  0  0  0  0  0  0  0
   26.1833  -15.4166    0.3859 C   0  0  1  0  0  0  0  0  0  0  0  0
   26.4037  -16.2381   -0.7974 C   0  0  1  0  0  0  0  0  0  0  0  0
   27.2076  -14.8378   -2.5848 O   0  0  0  0  0  0  0  0  0  0  0  0
   33.0709  -16.4956    0.0729 N   0  0  0  0  0  0  0  0  0  0  0  0
   34.1575  -14.4265    0.2996 N   0  0  0  0  0  0  0  0  0  0  0  0
   25.1954  -15.9422    1.5251 C   0  0  0  0  0  0  0  0  0  0  0  0
   25.2788  -16.3450   -1.5718 O   0  0  0  0  0  0  0  0  0  0  0  0
   24.8978  -17.3375    1.3772 O   0  0  0  0  0  0  0  0  0  0  0  0
   23.4620  -17.9267    1.8155 P   0  0  1  0  0  0  0  0  0  0  0  0
   23.2641  -19.4997    1.7773 O   0  0  0  0  0  0  0  0  0  0  0  0
   22.3303  -17.2229    0.9342 O   0  0  0  0  0  0  0  0  0  0  0  0
   23.2242  -17.5928    3.1309 O   0  0  0  0  0  0  0  0  0  0  0  0
   23.5322  -20.9207    1.0887 P   0  0  1  0  0  0  0  0  0  0  0  0
   22.1395  -21.6169    0.7185 O   0  0  0  0  0  0  0  0  0  0  0  0
   24.2541  -21.8304    2.1946 O   0  0  0  0  0  0  0  0  0  0  0  0
   24.3238  -20.7785   -0.0225 O   0  0  0  0  0  0  0  0  0  0  0  0
   21.3627  -22.5967   -0.2788 P   0  0  0  0  0  0  0  0  0  0  0  0
   21.8423  -22.5361   -1.8019 O   0  0  0  0  0  0  0  0  0  0  0  0
   21.4860  -24.1094    0.2392 O   0  0  0  0  0  0  0  0  0  0  0  0
   20.0286  -22.2571   -0.2484 O   0  0  0  0  0  0  0  0  0  0  0  0
   27.7085  -13.6567   -0.4916 H   0  0  0  0  0  0  0  0  0  0  0  0
   29.5120  -12.2981   -0.4011 H   0  0  0  0  0  0  0  0  0  0  0  0
   28.2789  -16.3120   -1.7985 H   0  0  0  0  0  0  0  0  0  0  0  0
   31.9884  -18.2907   -0.0479 H   0  0  0  0  0  0  0  0  0  0  0  0
   25.7189  -14.4237    0.1518 H   0  0  0  0  0  0  0  0  0  0  0  0
   26.7004  -17.2801   -0.4930 H   0  0  0  0  0  0  0  0  0  0  0  0
   26.4475  -14.2668   -2.3843 H   0  0  0  0  0  0  0  0  0  0  0  0
   34.3537  -14.2364    1.2822 H   0  0  0  0  0  0  0  0  0  0  0  0
   34.2087  -13.5532   -0.2233 H   0  0  0  0  0  0  0  0  0  0  0  0
   25.6786  -15.7836    2.4918 H   0  0  0  0  0  0  0  0  0  0  0  0
   24.2911  -15.3249    1.4610 H   0  0  0  0  0  0  0  0  0  0  0  0
   24.8329  -17.1760   -1.3102 H   0  0  0  0  0  0  0  0  0  0  0  0
   22.0266  -17.6311    0.0945 H   0  0  0  0  0  0  0  0  0  0  0  0
   25.1435  -22.2183    2.0393 H   0  0  0  0  0  0  0  0  0  0  0  0
   22.7935  -22.6312   -2.0030 H   0  0  0  0  0  0  0  0  0  0  0  0
   21.1360  -24.8128   -0.3364 H   0  0  0  0  0  0  0  0  0  0  0  0
  1  2  1  0  0  0  0
  3  1  1  0  0  0  0
  1  4  1  0  0  0  0
  2  5  2  0  0  0  0
  2  6  1  0  0  0  0
  3  7  1  0  0  0  0
  3  8  1  0  0  0  0
  4  9  2  0  0  0  0
  5 10  1  0  0  0  0
  6 11  2  0  0  0  0
  7 12  1  0  0  0  0
  8 13  1  0  0  0  0
  8 14  1  0  0  0  0
 10 15  2  0  0  0  0
 10 16  1  0  0  0  0
 12 17  1  0  0  0  0
 13 18  1  0  0  0  0
 17 19  1  0  0  0  0
 19 20  1  0  0  0  0
 20 21  1  0  0  0  0
 20 22  1  0  0  0  0
 20 23  2  0  0  0  0
 21 24  1  0  0  0  0
 24 25  1  0  0  0  0
 24 26  1  0  0  0  0
 24 27  2  0  0  0  0
 25 28  1  0  0  0  0
 28 29  1  0  0  0  0
 28 30  1  0  0  0  0
 28 31  2  0  0  0  0
  5  9  1  0  0  0  0
 11 15  1  0  0  0  0
 12 13  1  0  0  0  0
  3 32  1  0  0  0  0
  4 33  1  0  0  0  0
  8 34  1  0  0  0  0
 11 35  1  0  0  0  0
 12 36  1  0  0  0  0
 13 37  1  0  0  0  0
 14 38  1  0  0  0  0
 16 39  1  0  0  0  0
 16 40  1  0  0  0  0
 17 41  1  0  0  0  0
 17 42  1  0  0  0  0
 18 43  1  0  0  0  0
 22 44  1  0  0  0  0
 26 45  1  0  0  0  0
 29 46  1  0  0  0  0
 30 47  1  0  0  0  0
M  END
>  <energy>
287.34936267651784

$$$$
