
  662               3D

 16 15  0  0  1  0  0  0  0  0999 V2000
   29.2308  -17.5388    0.4914 O   0  0  0  0  0  0  0  0  0  0  0  0
   30.3631  -16.8306    0.2312 C   0  0  0  0  0  0  0  0  0  0  0  0
   30.0733  -15.4845   -0.4086 C   0  0  2  0  0  0  0  0  0  0  0  0
   31.3082  -14.7238   -0.9091 C   0  0  0  0  0  0  0  0  0  0  0  0
   32.4299  -14.4565    0.0775 C   0  0  0  0  0  0  0  0  0  0  0  0
   32.3671  -13.2149    0.6197 O   0  0  0  0  0  0  0  0  0  0  0  0
   31.4789  -17.2936    0.4249 O   0  0  0  0  0  0  0  0  0  0  0  0
   29.2766  -14.6802    0.5124 N   0  0  0  0  0  0  0  0  0  0  0  0
   33.3683  -15.2187    0.2750 O   0  0  0  0  0  0  0  0  0  0  0  0
   28.4153  -17.1930    0.0704 H   0  0  0  0  0  0  0  0  0  0  0  0
   29.4519  -15.6941   -1.2894 H   0  0  0  0  0  0  0  0  0  0  0  0
   30.9933  -13.7687   -1.3473 H   0  0  0  0  0  0  0  0  0  0  0  0
   31.7549  -15.2924   -1.7330 H   0  0  0  0  0  0  0  0  0  0  0  0
   31.8220  -12.5704    0.1205 H   0  0  0  0  0  0  0  0  0  0  0  0
   28.4251  -15.1838    0.7614 H   0  0  0  0  0  0  0  0  0  0  0  0
   29.7840  -14.5310    1.3810 H   0  0  0  0  0  0  0  0  0  0  0  0
  1  2  1  0  0  0  0
  2  3  1  0  0  0  0
  3  4  1  0  0  0  0
  4  5  1  0  0  0  0
  5  6  1  0  0  0  0
  2  7  2  0  0  0  0
  3  8  1  0  0  0  0
  5  9  2  0  0  0  0
  1 10  1  0  0  0  0
  3 11  1  0  0  0  0
  4 12  1  0  0  0  0
  4 13  1  0  0  0  0
  6 14  1  0  0  0  0
  8 15  1  0  0  0  0
  8 16  1  0  0  0  0
M  END
>  <energy>
11.116797976342109

$$$$
