
  662               3D

 16 15  0  0  0  0  0  0  0  0999 V2000
   23.3433  -16.5279   -0.0664 C   0  0  0  0  0  0  0  0  0  0  0  0
   22.0885  -15.6896   -0.0140 C   0  0  0  0  0  0  0  0  0  0  0  0
   24.6415  -15.7810   -0.0253 C   0  0  0  0  0  0  0  0  0  0  0  0
   23.3917  -17.7420   -0.1943 O   0  0  0  0  0  0  0  0  0  0  0  0
   20.9158  -16.4671    0.5613 C   0  0  0  0  0  0  0  0  0  0  0  0
   25.3250  -16.1332    1.0706 O   0  0  0  0  0  0  0  0  0  0  0  0
   24.9759  -15.0126   -0.9021 O   0  0  0  0  0  0  0  0  0  0  0  0
   20.9924  -16.5181    2.0653 C   0  0  0  0  0  0  0  0  0  0  0  0
   21.6878  -17.5916    2.5155 O   0  0  0  0  0  0  0  0  0  0  0  0
   20.4978  -15.6739    2.8017 O   0  0  0  0  0  0  0  0  0  0  0  0
   22.2756  -14.7816    0.5699 H   0  0  0  0  0  0  0  0  0  0  0  0
   21.8523  -15.3811   -1.0381 H   0  0  0  0  0  0  0  0  0  0  0  0
   19.9810  -15.9631    0.2930 H   0  0  0  0  0  0  0  0  0  0  0  0
   20.8479  -17.4780    0.1449 H   0  0  0  0  0  0  0  0  0  0  0  0
   26.1367  -15.5956    1.1905 H   0  0  0  0  0  0  0  0  0  0  0  0
   21.7289  -18.3487    1.8930 H   0  0  0  0  0  0  0  0  0  0  0  0
  1  2  1  0  0  0  0
  1  3  1  0  0  0  0
  1  4  2  0  0  0  0
  2  5  1  0  0  0  0
  3  6  1  0  0  0  0
  3  7  2  0  0  0  0
  5  8  1  0  0  0  0
  8  9  1  0  0  0  0
  8 10  2  0  0  0  0
  2 11  1  0  0  0  0
  2 12  1  0  0  0  0
  5 13  1  0  0  0  0
  5 14  1  0  0  0  0
  6 15  1  0  0  0  0
  9 16  1  0  0  0  0
M  END
>  <energy>
11.426044564700454

$$$$

  662               3D

 16 15  0  0  0  0  0  0  0  0999 V2000
   23.5550  -16.4939   -0.1074 C   0  0  0  0  0  0  0  0  0  0  0  0
   22.7535  -16.0339    1.0879 C   0  0  0  0  0  0  0  0  0  0  0  0
   24.8706  -15.7970   -0.3136 C   0  0  0  0  0  0  0  0  0  0  0  0
   23.1861  -17.2931   -0.9543 O   0  0  0  0  0  0  0  0  0  0  0  0
   21.8514  -17.1288    1.6424 C   0  0  0  0  0  0  0  0  0  0  0  0
   25.8235  -16.6934   -0.5964 O   0  0  0  0  0  0  0  0  0  0  0  0
   24.9929  -14.5955   -0.1869 O   0  0  0  0  0  0  0  0  0  0  0  0
   20.5791  -16.5402    2.1991 C   0  0  0  0  0  0  0  0  0  0  0  0
   20.7200  -16.0814    3.4668 O   0  0  0  0  0  0  0  0  0  0  0  0
   19.5276  -16.4797    1.5746 O   0  0  0  0  0  0  0  0  0  0  0  0
   23.4531  -15.7116    1.8682 H   0  0  0  0  0  0  0  0  0  0  0  0
   22.1819  -15.1544    0.7696 H   0  0  0  0  0  0  0  0  0  0  0  0
   21.5602  -17.8508    0.8721 H   0  0  0  0  0  0  0  0  0  0  0  0
   22.3689  -17.6900    2.4282 H   0  0  0  0  0  0  0  0  0  0  0  0
   26.7192  -16.3443   -0.4013 H   0  0  0  0  0  0  0  0  0  0  0  0
   21.5653  -16.3139    3.9063 H   0  0  0  0  0  0  0  0  0  0  0  0
  1  2  1  0  0  0  0
  1  3  1  0  0  0  0
  1  4  2  0  0  0  0
  2  5  1  0  0  0  0
  3  6  1  0  0  0  0
  3  7  2  0  0  0  0
  5  8  1  0  0  0  0
  8  9  1  0  0  0  0
  8 10  2  0  0  0  0
  2 11  1  0  0  0  0
  2 12  1  0  0  0  0
  5 13  1  0  0  0  0
  5 14  1  0  0  0  0
  6 15  1  0  0  0  0
  9 16  1  0  0  0  0
M  END
>  <energy>
11.840353580315579

$$$$

  662               3D

 16 15  0  0  0  0  0  0  0  0999 V2000
   23.7764  -16.6148    0.2132 C   0  0  0  0  0  0  0  0  0  0  0  0
   22.5945  -15.9249    0.8519 C   0  0  0  0  0  0  0  0  0  0  0  0
   24.7855  -15.6992   -0.4196 C   0  0  0  0  0  0  0  0  0  0  0  0
   23.9266  -17.8200    0.0864 O   0  0  0  0  0  0  0  0  0  0  0  0
   21.9983  -16.7268    2.0012 C   0  0  0  0  0  0  0  0  0  0  0  0
   26.0243  -16.0794   -0.0873 O   0  0  0  0  0  0  0  0  0  0  0  0
   24.4566  -14.7244   -1.0648 O   0  0  0  0  0  0  0  0  0  0  0  0
   20.5088  -16.5024    2.0836 C   0  0  0  0  0  0  0  0  0  0  0  0
   19.7966  -17.5315    1.5607 O   0  0  0  0  0  0  0  0  0  0  0  0
   19.9920  -15.5134    2.5870 O   0  0  0  0  0  0  0  0  0  0  0  0
   22.9313  -14.9512    1.2286 H   0  0  0  0  0  0  0  0  0  0  0  0
   21.8676  -15.7302    0.0547 H   0  0  0  0  0  0  0  0  0  0  0  0
   22.2025  -17.7992    1.9236 H   0  0  0  0  0  0  0  0  0  0  0  0
   22.4361  -16.3923    2.9485 H   0  0  0  0  0  0  0  0  0  0  0  0
   26.6607  -15.3379   -0.1738 H   0  0  0  0  0  0  0  0  0  0  0  0
   20.3162  -18.1745    1.0324 H   0  0  0  0  0  0  0  0  0  0  0  0
  1  2  1  0  0  0  0
  1  3  1  0  0  0  0
  1  4  2  0  0  0  0
  2  5  1  0  0  0  0
  3  6  1  0  0  0  0
  3  7  2  0  0  0  0
  5  8  1  0  0  0  0
  8  9  1  0  0  0  0
  8 10  2  0  0  0  0
  2 11  1  0  0  0  0
  2 12  1  0  0  0  0
  5 13  1  0  0  0  0
  5 14  1  0  0  0  0
  6 15  1  0  0  0  0
  9 16  1  0  0  0  0
M  END
>  <energy>
12.348534826164387

$$$$
