
  662               3D

 35 37  0  0  1  0  0  0  0  0999 V2000
   27.4701  -15.8635   -0.0283 N   0  0  0  0  0  0  0  0  0  0  0  0
   26.2129  -15.2671   -0.1948 C   0  0  0  0  0  0  0  0  0  0  0  0
   27.7056  -17.1703    0.5136 C   0  0  2  0  0  0  0  0  0  0  0  0
   28.3686  -14.8277   -0.1771 C   0  0  0  0  0  0  0  0  0  0  0  0
   26.4922  -13.9688   -0.4212 C   0  0  0  0  0  0  0  0  0  0  0  0
   24.9406  -15.7656   -0.1238 N   0  0  0  0  0  0  0  0  0  0  0  0
   28.9144  -17.2898    1.1758 O   0  0  0  0  0  0  0  0  0  0  0  0
   27.7620  -18.3699   -0.3584 C   0  0  1  0  0  0  0  0  0  0  0  0
   27.8382  -13.6554   -0.4243 N   0  0  0  0  0  0  0  0  0  0  0  0
   25.3579  -13.0281   -0.3697 C   0  0  0  0  0  0  0  0  0  0  0  0
   23.9899  -14.8820   -0.2097 C   0  0  0  0  0  0  0  0  0  0  0  0
   28.9368  -18.5955    1.6165 C   0  0  1  0  0  0  0  0  0  0  0  0
   28.7754  -19.2507    0.3168 C   0  0  1  0  0  0  0  0  0  0  0  0
   26.5420  -18.9524   -0.5330 O   0  0  0  0  0  0  0  0  0  0  0  0
   24.1413  -13.5130   -0.3025 N   0  0  0  0  0  0  0  0  0  0  0  0
   25.5826  -11.6625   -0.3655 N   0  0  0  0  0  0  0  0  0  0  0  0
   30.1988  -18.9142    2.4673 C   0  0  0  0  0  0  0  0  0  0  0  0
   28.3788  -20.5471    0.4278 O   0  0  0  0  0  0  0  0  0  0  0  0
   29.9300  -20.3234    3.5868 S   0  0  0  0  0  0  0  0  0  0  0  0
   31.3672  -20.0887    4.6591 C   0  0  0  0  0  0  0  0  0  0  0  0
   26.8683  -17.2849    1.2465 H   0  0  0  0  0  0  0  0  0  0  0  0
   29.4383  -15.0468   -0.0400 H   0  0  0  0  0  0  0  0  0  0  0  0
   28.1347  -18.0860   -1.3832 H   0  0  0  0  0  0  0  0  0  0  0  0
   22.9498  -15.2469   -0.1877 H   0  0  0  0  0  0  0  0  0  0  0  0
   28.0899  -18.8071    2.3097 H   0  0  0  0  0  0  0  0  0  0  0  0
   29.7385  -19.2436   -0.2711 H   0  0  0  0  0  0  0  0  0  0  0  0
   26.1542  -18.5457   -1.3290 H   0  0  0  0  0  0  0  0  0  0  0  0
   24.9413  -11.1508    0.2395 H   0  0  0  0  0  0  0  0  0  0  0  0
   26.5350  -11.3793   -0.1360 H   0  0  0  0  0  0  0  0  0  0  0  0
   31.0358  -19.1322    1.7965 H   0  0  0  0  0  0  0  0  0  0  0  0
   30.4379  -18.0182    3.0493 H   0  0  0  0  0  0  0  0  0  0  0  0
   29.1510  -21.0496    0.7419 H   0  0  0  0  0  0  0  0  0  0  0  0
   32.2876  -20.2240    4.0859 H   0  0  0  0  0  0  0  0  0  0  0  0
   31.3585  -19.0871    5.0970 H   0  0  0  0  0  0  0  0  0  0  0  0
   31.3469  -20.8214    5.4694 H   0  0  0  0  0  0  0  0  0  0  0  0
  1  2  1  0  0  0  0
  3  1  1  0  0  0  0
  1  4  1  0  0  0  0
  2  5  2  0  0  0  0
  2  6  1  0  0  0  0
  3  7  1  0  0  0  0
  3  8  1  0  0  0  0
  4  9  2  0  0  0  0
  5 10  1  0  0  0  0
  6 11  2  0  0  0  0
  7 12  1  0  0  0  0
  8 13  1  0  0  0  0
  8 14  1  0  0  0  0
 10 15  2  0  0  0  0
 10 16  1  0  0  0  0
 12 17  1  0  0  0  0
 13 18  1  0  0  0  0
 17 19  1  0  0  0  0
 19 20  1  0  0  0  0
  5  9  1  0  0  0  0
 11 15  1  0  0  0  0
 12 13  1  0  0  0  0
  3 21  1  0  0  0  0
  4 22  1  0  0  0  0
  8 23  1  0  0  0  0
 11 24  1  0  0  0  0
 12 25  1  0  0  0  0
 13 26  1  0  0  0  0
 14 27  1  0  0  0  0
 16 28  1  0  0  0  0
 16 29  1  0  0  0  0
 17 30  1  0  0  0  0
 17 31  1  0  0  0  0
 18 32  1  0  0  0  0
 20 33  1  0  0  0  0
 20 34  1  0  0  0  0
 20 35  1  0  0  0  0
M  END
>  <energy>
249.91472251923602

$$$$
