
  662               3D

  5  4  0  0  1  0  0  0  0  0999 V2000
    0.0727    0.0712   -0.0695 C   0  0  1  0  0  0  0  0  0  0  0  0
    0.8840   -1.3258   -0.7882 Cl  0  0  0  0  0  0  0  0  0  0  0  0
    0.4350    1.1957   -0.7408 F   0  0  0  0  0  0  0  0  0  0  0  0
    0.5969    0.2370    1.7942 Br  0  0  0  0  0  0  0  0  0  0  0  0
   -1.9886   -0.1781   -0.1957 I   0  0  0  0  0  0  0  0  0  0  0  0
  1  2  1  0  0  0  0
  1  3  1  0  0  0  0
  1  4  1  0  0  0  0
  1  5  1  0  0  0  0
M  END
>  <energy>
0.026434688441365338

$$$$
