
  662               3D

  5  4  0  0  1  0  0  0  0  0999 V2000
    0.0639   -0.0066   -0.1052 C   0  0  1  0  0  0  0  0  0  0  0  0
    0.2858   -0.3311   -1.4058 F   0  0  0  0  0  0  0  0  0  0  0  0
    1.0723    1.3785    0.3320 Cl  0  0  0  0  0  0  0  0  0  0  0  0
    0.5195   -1.5214    1.0232 Br  0  0  0  0  0  0  0  0  0  0  0  0
   -1.9415    0.4805    0.1557 I   0  0  0  0  0  0  0  0  0  0  0  0
  1  2  1  0  0  0  0
  1  3  1  0  0  0  0
  1  4  1  0  0  0  0
  1  5  1  0  0  0  0
M  END
>  <energy>
0.026434252963301264

$$$$
