
  662               3D

  5  4  0  0  1  0  0  0  0  0999 V2000
    0.0652    0.0055    0.1045 C   0  0  1  0  0  0  0  0  0  0  0  0
    0.3351    0.3825    1.3816 F   0  0  0  0  0  0  0  0  0  0  0  0
    0.8988   -1.5141   -0.2452 Cl  0  0  0  0  0  0  0  0  0  0  0  0
    0.6869    1.3818   -1.1181 Br  0  0  0  0  0  0  0  0  0  0  0  0
   -1.9860   -0.2558   -0.1227 I   0  0  0  0  0  0  0  0  0  0  0  0
  1  2  1  0  0  0  0
  1  3  1  0  0  0  0
  1  4  1  0  0  0  0
  1  5  1  0  0  0  0
M  END
>  <energy>
0.02643417225794413

$$$$
