C(Cl)(Br)(I)(F)
  662               3D

  5  4  0  0  1  0  0  0  0  0999 V2000
   -0.0482   -0.0344    0.1081 C   0  0  1  0  0  0  0  0  0  0  0  0
   -0.8763   -1.4195   -0.6143 Cl  0  0  0  0  0  0  0  0  0  0  0  0
   -0.8979    1.6096   -0.4843 Br  0  0  0  0  0  0  0  0  0  0  0  0
    1.9496   -0.0361   -0.4715 I   0  0  0  0  0  0  0  0  0  0  0  0
   -0.1272   -0.1196    1.4619 F   0  0  0  0  0  0  0  0  0  0  0  0
  2  1  1  0  0  0  0
  3  1  1  0  0  0  0
  4  1  1  0  0  0  0
  5  1  1  0  0  0  0
M  END
>  <energy>
0.026432822296242373

$$$$
